<?xml version='1.0' encoding='utf-8'?>
<routes>
  <vType id="car" accel="2.0" decel="4.5" sigma="0.5" length="5.0" maxSpeed="55.55" color="1,1,0" />
  <vehicle id="639#0" depart="3.60" type="car">
    <route edges="e_g2_n1 e_n1_n4 e_n4_n3 e_n3_n0 e_n0_g3" />
  </vehicle>
  <vehicle id="687#0" depart="3.60" type="car">
    <route edges="e_g1_n2 e_n2_n1 e_n1_g2" />
  </vehicle>
  <vehicle id="752#0" depart="3.60" type="car">
    <route edges="e_g0_n2 e_n2_g1" />
  </vehicle>
  <vehicle id="753#0" depart="3.60" type="car">
    <route edges="e_g11_n5 e_n5_n8 e_n8_g10" />
  </vehicle>
  <vehicle id="1120#0" depart="13.60" type="car">
    <route edges="e_g8_n7 e_n7_n4 e_n4_n1 e_n1_g2" />
  </vehicle>
  <vehicle id="1128#0" depart="13.60" type="car">
    <route edges="e_g9_n8 e_n8_g10" />
  </vehicle>
  <vehicle id="1132#0" depart="13.60" type="car">
    <route edges="e_g8_n7 e_n7_n4 e_n4_n1 e_n1_n2 e_n2_n5 e_n5_g11" />
  </vehicle>
  <vehicle id="1190#0" depart="18.40" type="car">
    <route edges="e_g9_n8 e_n8_g10" />
  </vehicle>
  <vehicle id="1199#0" depart="19.20" type="car">
    <route edges="e_g9_n8 e_n8_g10" />
  </vehicle>
  <vehicle id="384#0" depart="24.04" type="car">
    <route edges="e_g0_n2 e_n2_g1" />
  </vehicle>
  <vehicle id="1419#0" depart="27.40" type="car">
    <route edges="e_g9_n8 e_n8_g10" />
  </vehicle>
  <vehicle id="381#0" depart="28.04" type="car">
    <route edges="e_g0_n2 e_n2_g1" />
  </vehicle>
  <vehicle id="308#0" depart="29.04" type="car">
    <route edges="e_g0_n2 e_n2_g1" />
  </vehicle>
  <vehicle id="1434#0" depart="29.20" type="car">
    <route edges="e_g9_n8 e_n8_g10" />
  </vehicle>
  <vehicle id="286#0" depart="31.04" type="car">
    <route edges="e_g0_n2 e_n2_g1" />
  </vehicle>
  <vehicle id="309#0" depart="31.04" type="car">
    <route edges="e_g0_n2 e_n2_g1" />
  </vehicle>
  <vehicle id="1461#0" depart="32.40" type="car">
    <route edges="e_g9_n8 e_n8_g10" />
  </vehicle>
  <vehicle id="1469#0" depart="33.60" type="car">
    <route edges="e_g9_n8 e_n8_g10" />
  </vehicle>
  <vehicle id="1482#0" depart="34.40" type="car">
    <route edges="e_g9_n8 e_n8_n7 e_n7_g8" />
  </vehicle>
  <vehicle id="1485#0" depart="34.60" type="car">
    <route edges="e_g9_n8 e_n8_g10" />
  </vehicle>
  <vehicle id="1486#0" depart="34.60" type="car">
    <route edges="e_g9_n8 e_n8_n7 e_n7_n4 e_n4_n1 e_n1_g2" />
  </vehicle>
  <vehicle id="1495#0" depart="35.20" type="car">
    <route edges="e_g9_n8 e_n8_g10" />
  </vehicle>
  <vehicle id="1496#0" depart="35.20" type="car">
    <route edges="e_g8_n7 e_n7_n6 e_n6_n3 e_n3_n4 e_n4_n1 e_n1_n2 e_n2_n5 e_n5_g11" />
  </vehicle>
  <vehicle id="1507#0" depart="36.80" type="car">
    <route edges="e_g8_n7 e_n7_n4 e_n4_n1 e_n1_g2" />
  </vehicle>
  <vehicle id="1515#0" depart="37.40" type="car">
    <route edges="e_g9_n8 e_n8_g10" />
  </vehicle>
  <vehicle id="1517#0" depart="37.80" type="car">
    <route edges="e_g9_n8 e_n8_g10" />
  </vehicle>
  <vehicle id="304#0" depart="38.04" type="car">
    <route edges="e_g0_n2 e_n2_g1" />
  </vehicle>
  <vehicle id="1393#0" depart="38.44" type="car">
    <route edges="e_g0_n2 e_n2_g1" />
  </vehicle>
  <vehicle id="323#0" depart="39.04" type="car">
    <route edges="e_g0_n2 e_n2_n1 e_n1_g2" />
  </vehicle>
  <vehicle id="1551#0" depart="42.00" type="car">
    <route edges="e_g9_n8 e_n8_g10" />
  </vehicle>
  <vehicle id="1567#0" depart="43.60" type="car">
    <route edges="e_g9_n8 e_n8_n7 e_n7_g8" />
  </vehicle>
  <vehicle id="1579#0" depart="44.60" type="car">
    <route edges="e_g9_n8 e_n8_g10" />
  </vehicle>
  <vehicle id="1583#0" depart="45.20" type="car">
    <route edges="e_g9_n8 e_n8_g10" />
  </vehicle>
  <vehicle id="1578#0" depart="45.60" type="car">
    <route edges="e_g10_n8 e_n8_n7 e_n7_g8" />
  </vehicle>
  <vehicle id="288#0" depart="47.04" type="car">
    <route edges="e_g0_n2 e_n2_g1" />
  </vehicle>
  <vehicle id="320#0" depart="47.04" type="car">
    <route edges="e_g0_n2 e_n2_g1" />
  </vehicle>
  <vehicle id="1604#0" depart="47.20" type="car">
    <route edges="e_g9_n8 e_n8_g10" />
  </vehicle>
  <vehicle id="1619#0" depart="49.40" type="car">
    <route edges="e_g9_n8 e_n8_n7 e_n7_g8" />
  </vehicle>
  <vehicle id="1625#0" depart="50.00" type="car">
    <route edges="e_g9_n8 e_n8_n7 e_n7_n4 e_n4_n1 e_n1_n2 e_n2_n5 e_n5_g11" />
  </vehicle>
  <vehicle id="293#0" depart="50.04" type="car">
    <route edges="e_g0_n2 e_n2_n1 e_n1_g2" />
  </vehicle>
  <vehicle id="297#0" depart="50.04" type="car">
    <route edges="e_g0_n2 e_n2_g1" />
  </vehicle>
  <vehicle id="1629#0" depart="50.40" type="car">
    <route edges="e_g9_n8 e_n8_g10" />
  </vehicle>
  <vehicle id="1638#0" depart="51.40" type="car">
    <route edges="e_g9_n8 e_n8_n7 e_n7_g8" />
  </vehicle>
  <vehicle id="1649#0" depart="53.00" type="car">
    <route edges="e_g9_n8 e_n8_g10" />
  </vehicle>
  <vehicle id="313#0" depart="55.04" type="car">
    <route edges="e_g0_n2 e_n2_g1" />
  </vehicle>
  <vehicle id="1568#0" depart="57.60" type="car">
    <route edges="e_g8_n7 e_n7_n4 e_n4_n1 e_n1_n2 e_n2_n5 e_n5_g11" />
  </vehicle>
  <vehicle id="315#0" depart="59.04" type="car">
    <route edges="e_g0_n2 e_n2_g1" />
  </vehicle>
  <vehicle id="1706#0" depart="61.60" type="car">
    <route edges="e_g9_n8 e_n8_n7 e_n7_g8" />
  </vehicle>
  <vehicle id="1699#0" depart="62.20" type="car">
    <route edges="e_g9_n8 e_n8_n7 e_n7_g8" />
  </vehicle>
  <vehicle id="1728#0" depart="63.40" type="car">
    <route edges="e_g9_n8 e_n8_g10" />
  </vehicle>
  <vehicle id="284#0" depart="67.04" type="car">
    <route edges="e_g0_n2 e_n2_n1 e_n1_n4 e_n4_n3 e_n3_n0 e_n0_g3" />
  </vehicle>
  <vehicle id="1660#0" depart="71.80" type="car">
    <route edges="e_g8_n7 e_n7_n4 e_n4_n5 e_n5_g11" />
  </vehicle>
  <vehicle id="1798#0" depart="72.00" type="car">
    <route edges="e_g9_n8 e_n8_n7 e_n7_g8" />
  </vehicle>
  <vehicle id="1818#0" depart="74.80" type="car">
    <route edges="e_g9_n8 e_n8_n7 e_n7_g8" />
  </vehicle>
  <vehicle id="1797#0" depart="76.00" type="car">
    <route edges="e_g9_n8 e_n8_g10" />
  </vehicle>
  <vehicle id="1835#0" depart="77.60" type="car">
    <route edges="e_g0_n2 e_n2_g1" />
  </vehicle>
  <vehicle id="1841#0" depart="78.20" type="car">
    <route edges="e_g9_n8 e_n8_g10" />
  </vehicle>
  <vehicle id="1829#0" depart="81.00" type="car">
    <route edges="e_g8_n7 e_n7_n4 e_n4_n1 e_n1_n2 e_n2_n5 e_n5_g11" />
  </vehicle>
  <vehicle id="1882#0" depart="82.40" type="car">
    <route edges="e_g9_n8 e_n8_g10" />
  </vehicle>
  <vehicle id="1885#0" depart="82.60" type="car">
    <route edges="e_g10_n8 e_n8_n7 e_n7_g8" />
  </vehicle>
  <vehicle id="1848#0" depart="82.80" type="car">
    <route edges="e_g8_n7 e_n7_n4 e_n4_n1 e_n1_g2" />
  </vehicle>
  <vehicle id="1866#0" depart="84.60" type="car">
    <route edges="e_g9_n8 e_n8_g10" />
  </vehicle>
  <vehicle id="1938#0" depart="86.40" type="car">
    <route edges="e_g9_n8 e_n8_g10" />
  </vehicle>
  <vehicle id="1976#0" depart="88.40" type="car">
    <route edges="e_g9_n8 e_n8_g10" />
  </vehicle>
  <vehicle id="1981#0" depart="88.80" type="car">
    <route edges="e_g9_n8 e_n8_g10" />
  </vehicle>
  <vehicle id="248#0" depart="89.04" type="car">
    <route edges="e_g0_n2 e_n2_n1 e_n1_n0 e_n0_g3" />
  </vehicle>
  <vehicle id="256#0" depart="89.04" type="car">
    <route edges="e_g0_n2 e_n2_n1 e_n1_n4 e_n4_n3 e_n3_n0 e_n0_g3" />
  </vehicle>
  <vehicle id="1947#0" depart="89.80" type="car">
    <route edges="e_g9_n8 e_n8_g10" />
  </vehicle>
  <vehicle id="755#1" depart="90.60" type="car">
    <route edges="e_g11_n5 e_n5_n8 e_n8_n7 e_n7_g8" />
  </vehicle>
  <vehicle id="2009#0" depart="90.80" type="car">
    <route edges="e_g9_n8 e_n8_g10" />
  </vehicle>
  <vehicle id="246#0" depart="92.04" type="car">
    <route edges="e_g0_n2 e_n2_n1 e_n1_n4 e_n4_n3 e_n3_n0 e_n0_g3" />
  </vehicle>
  <vehicle id="253#0" depart="92.04" type="car">
    <route edges="e_g0_n2 e_n2_n5 e_n5_n4 e_n4_n3 e_n3_n0 e_n0_n1 e_n1_n4 e_n4_n3 e_n3_n0 e_n0_g3" />
  </vehicle>
  <vehicle id="1978#0" depart="92.60" type="car">
    <route edges="e_g9_n8 e_n8_g10" />
  </vehicle>
  <vehicle id="250#0" depart="94.04" type="car">
    <route edges="e_g0_n2 e_n2_n1 e_n1_n4 e_n4_n3 e_n3_n0 e_n0_g3" />
  </vehicle>
  <vehicle id="251#0" depart="94.04" type="car">
    <route edges="e_g0_n2 e_n2_n1 e_n1_n4 e_n4_n3 e_n3_n0 e_n0_n1 e_n1_n4 e_n4_n3 e_n3_n0 e_n0_g3" />
  </vehicle>
  <vehicle id="2010#0" depart="94.80" type="car">
    <route edges="e_g9_n8 e_n8_g10" />
  </vehicle>
  <vehicle id="2076#0" depart="95.60" type="car">
    <route edges="e_g5_n3 e_n3_n4 e_n4_n5 e_n5_g11" />
  </vehicle>
  <vehicle id="2077#0" depart="95.60" type="car">
    <route edges="e_g5_n3 e_n3_n4 e_n4_n5 e_n5_g11" />
  </vehicle>
  <vehicle id="2078#0" depart="95.60" type="car">
    <route edges="e_g5_n3 e_n3_n0 e_n0_n1 e_n1_g2" />
  </vehicle>
  <vehicle id="2080#0" depart="95.60" type="car">
    <route edges="e_g5_n3 e_n3_n4 e_n4_n5 e_n5_g11" />
  </vehicle>
  <vehicle id="2082#0" depart="95.60" type="car">
    <route edges="e_g5_n3 e_n3_n4 e_n4_n5 e_n5_g11" />
  </vehicle>
  <vehicle id="2084#0" depart="95.60" type="car">
    <route edges="e_g5_n3 e_n3_n4 e_n4_n5 e_n5_g11" />
  </vehicle>
  <vehicle id="2085#0" depart="95.60" type="car">
    <route edges="e_g5_n3 e_n3_n4 e_n4_n1 e_n1_n2 e_n2_n5 e_n5_g11" />
  </vehicle>
  <vehicle id="2086#0" depart="95.60" type="car">
    <route edges="e_g5_n3 e_n3_n4 e_n4_n1 e_n1_n2 e_n2_n5 e_n5_g11" />
  </vehicle>
  <vehicle id="2104#0" depart="95.60" type="car">
    <route edges="e_g4_n0 e_n0_n1 e_n1_n2 e_n2_n5 e_n5_g11" />
  </vehicle>
  <vehicle id="2114#0" depart="95.60" type="car">
    <route edges="e_g5_n3 e_n3_n4 e_n4_n5 e_n5_g11" />
  </vehicle>
  <vehicle id="2118#0" depart="95.60" type="car">
    <route edges="e_g5_n3 e_n3_n4 e_n4_n1 e_n1_n2 e_n2_n5 e_n5_g11" />
  </vehicle>
  <vehicle id="2120#0" depart="95.60" type="car">
    <route edges="e_g5_n3 e_n3_n4 e_n4_n1 e_n1_g2" />
  </vehicle>
  <vehicle id="2121#0" depart="95.60" type="car">
    <route edges="e_g5_n3 e_n3_n4 e_n4_n1 e_n1_n2 e_n2_n5 e_n5_g11" />
  </vehicle>
  <vehicle id="2122#0" depart="95.60" type="car">
    <route edges="e_g5_n3 e_n3_n4 e_n4_n5 e_n5_g11" />
  </vehicle>
  <vehicle id="2137#0" depart="95.60" type="car">
    <route edges="e_g5_n3 e_n3_n0 e_n0_n1 e_n1_g2" />
  </vehicle>
  <vehicle id="2138#0" depart="95.60" type="car">
    <route edges="e_g5_n3 e_n3_n4 e_n4_n1 e_n1_n2 e_n2_n5 e_n5_g11" />
  </vehicle>
  <vehicle id="2139#0" depart="95.60" type="car">
    <route edges="e_g5_n3 e_n3_n4 e_n4_n5 e_n5_g11" />
  </vehicle>
  <vehicle id="2140#0" depart="95.60" type="car">
    <route edges="e_g5_n3 e_n3_n4 e_n4_n1 e_n1_n2 e_n2_n5 e_n5_g11" />
  </vehicle>
  <vehicle id="2143#0" depart="95.60" type="car">
    <route edges="e_g5_n3 e_n3_n4 e_n4_n5 e_n5_g11" />
  </vehicle>
  <vehicle id="2144#0" depart="95.60" type="car">
    <route edges="e_g5_n3 e_n3_n4 e_n4_n5 e_n5_g11" />
  </vehicle>
  <vehicle id="2154#0" depart="95.60" type="car">
    <route edges="e_g6_n6 e_n6_g7" />
  </vehicle>
  <vehicle id="2156#0" depart="95.60" type="car">
    <route edges="e_g4_n0 e_n0_g3" />
  </vehicle>
  <vehicle id="2157#0" depart="95.60" type="car">
    <route edges="e_g4_n0 e_n0_g3" />
  </vehicle>
  <vehicle id="2168#0" depart="95.60" type="car">
    <route edges="e_g4_n0 e_n0_g3" />
  </vehicle>
  <vehicle id="2169#0" depart="95.60" type="car">
    <route edges="e_g4_n0 e_n0_g3" />
  </vehicle>
  <vehicle id="2173#0" depart="95.60" type="car">
    <route edges="e_g4_n0 e_n0_n1 e_n1_n4 e_n4_n3 e_n3_n0 e_n0_g3" />
  </vehicle>
  <vehicle id="2179#0" depart="95.60" type="car">
    <route edges="e_g5_n3 e_n3_n4 e_n4_n1 e_n1_g2" />
  </vehicle>
  <vehicle id="2189#0" depart="95.60" type="car">
    <route edges="e_g5_n3 e_n3_n6 e_n6_g7" />
  </vehicle>
  <vehicle id="2190#0" depart="95.60" type="car">
    <route edges="e_g6_n6 e_n6_g7" />
  </vehicle>
  <vehicle id="2194#0" depart="95.60" type="car">
    <route edges="e_g6_n6 e_n6_g7" />
  </vehicle>
  <vehicle id="2203#0" depart="95.60" type="car">
    <route edges="e_g6_n6 e_n6_g7" />
  </vehicle>
  <vehicle id="2216#0" depart="95.60" type="car">
    <route edges="e_g5_n3 e_n3_n6 e_n6_g6" />
  </vehicle>
  <vehicle id="2218#0" depart="95.60" type="car">
    <route edges="e_g3_n0 e_n0_n3 e_n3_n4 e_n4_n5 e_n5_g11" />
  </vehicle>
  <vehicle id="2220#0" depart="95.60" type="car">
    <route edges="e_g5_n3 e_n3_n6 e_n6_g6" />
  </vehicle>
  <vehicle id="2226#0" depart="95.60" type="car">
    <route edges="e_g6_n6 e_n6_g7" />
  </vehicle>
  <vehicle id="2231#0" depart="95.60" type="car">
    <route edges="e_g5_n3 e_n3_n6 e_n6_g7" />
  </vehicle>
  <vehicle id="2232#0" depart="95.60" type="car">
    <route edges="e_g5_n3 e_n3_n6 e_n6_g7" />
  </vehicle>
  <vehicle id="2233#0" depart="95.60" type="car">
    <route edges="e_g5_n3 e_n3_n6 e_n6_g6" />
  </vehicle>
  <vehicle id="2234#0" depart="95.60" type="car">
    <route edges="e_g5_n3 e_n3_n4 e_n4_n5 e_n5_g11" />
  </vehicle>
  <vehicle id="2235#0" depart="95.60" type="car">
    <route edges="e_g5_n3 e_n3_n6 e_n6_g7" />
  </vehicle>
  <vehicle id="2241#0" depart="95.60" type="car">
    <route edges="e_g5_n3 e_n3_n6 e_n6_g7" />
  </vehicle>
  <vehicle id="2243#0" depart="95.60" type="car">
    <route edges="e_g7_n6 e_n6_g6" />
  </vehicle>
  <vehicle id="2251#0" depart="95.60" type="car">
    <route edges="e_g5_n3 e_n3_n4 e_n4_n1 e_n1_n2 e_n2_n5 e_n5_g11" />
  </vehicle>
  <vehicle id="2253#0" depart="95.60" type="car">
    <route edges="e_g5_n3 e_n3_n6 e_n6_g6" />
  </vehicle>
  <vehicle id="2258#0" depart="95.60" type="car">
    <route edges="e_g5_n3 e_n3_n6 e_n6_g7" />
  </vehicle>
  <vehicle id="2260#0" depart="95.60" type="car">
    <route edges="e_g5_n3 e_n3_n6 e_n6_g6" />
  </vehicle>
  <vehicle id="2267#0" depart="95.60" type="car">
    <route edges="e_g7_n6 e_n6_g6" />
  </vehicle>
  <vehicle id="2271#0" depart="95.60" type="car">
    <route edges="e_g5_n3 e_n3_n6 e_n6_g7" />
  </vehicle>
  <vehicle id="2273#0" depart="95.60" type="car">
    <route edges="e_g4_n0 e_n0_n1 e_n1_n4 e_n4_n3 e_n3_n6 e_n6_g7" />
  </vehicle>
  <vehicle id="2283#0" depart="95.60" type="car">
    <route edges="e_g4_n0 e_n0_n3 e_n3_n6 e_n6_g7" />
  </vehicle>
  <vehicle id="2284#0" depart="95.60" type="car">
    <route edges="e_g5_n3 e_n3_n6 e_n6_g6" />
  </vehicle>
  <vehicle id="2302#0" depart="95.60" type="car">
    <route edges="e_g5_n3 e_n3_n4 e_n4_n1 e_n1_n2 e_n2_n5 e_n5_g11" />
  </vehicle>
  <vehicle id="2303#0" depart="95.60" type="car">
    <route edges="e_g5_n3 e_n3_n4 e_n4_n1 e_n1_n2 e_n2_n5 e_n5_g11" />
  </vehicle>
  <vehicle id="2308#0" depart="95.60" type="car">
    <route edges="e_g5_n3 e_n3_n4 e_n4_n1 e_n1_n2 e_n2_n5 e_n5_g11" />
  </vehicle>
  <vehicle id="2307#0" depart="96.60" type="car">
    <route edges="e_g5_n3 e_n3_n4 e_n4_n1 e_n1_n2 e_n2_n5 e_n5_g11" />
  </vehicle>
  <vehicle id="2040#0" depart="97.00" type="car">
    <route edges="e_g9_n8 e_n8_n7 e_n7_g8" />
  </vehicle>
  <vehicle id="247#0" depart="97.04" type="car">
    <route edges="e_g0_n2 e_n2_n1 e_n1_n4 e_n4_n3 e_n3_n0 e_n0_g3" />
  </vehicle>
  <vehicle id="2117#0" depart="97.60" type="car">
    <route edges="e_g5_n3 e_n3_n4 e_n4_n1 e_n1_n2 e_n2_n5 e_n5_g11" />
  </vehicle>
  <vehicle id="2352#0" depart="98.40" type="car">
    <route edges="e_g9_n8 e_n8_g10" />
  </vehicle>
  <vehicle id="2101#0" depart="98.60" type="car">
    <route edges="e_g5_n3 e_n3_n4 e_n4_n1 e_n1_n2 e_n2_n5 e_n5_g11" />
  </vehicle>
  <vehicle id="2363#0" depart="99.20" type="car">
    <route edges="e_g9_n8 e_n8_g10" />
  </vehicle>
  <vehicle id="2128#0" depart="99.60" type="car">
    <route edges="e_g5_n3 e_n3_n4 e_n4_n1 e_n1_n2 e_n2_n5 e_n5_g11" />
  </vehicle>
  <vehicle id="2131#0" depart="99.60" type="car">
    <route edges="e_g5_n3 e_n3_n4 e_n4_n1 e_n1_n2 e_n2_n5 e_n5_g11" />
  </vehicle>
  <vehicle id="539#0" depart="100.04" type="car">
    <route edges="e_g0_n2 e_n2_n1 e_n1_g2" />
  </vehicle>
  <vehicle id="2064#0" depart="100.60" type="car">
    <route edges="e_g9_n8 e_n8_g10" />
  </vehicle>
  <vehicle id="2142#0" depart="101.60" type="car">
    <route edges="e_g5_n3 e_n3_n4 e_n4_n5 e_n5_g11" />
  </vehicle>
  <vehicle id="2152#0" depart="101.60" type="car">
    <route edges="e_g5_n3 e_n3_n6 e_n6_n7 e_n7_n4 e_n4_n5 e_n5_g11" />
  </vehicle>
  <vehicle id="2392#0" depart="101.60" type="car">
    <route edges="e_g9_n8 e_n8_g10" />
  </vehicle>
  <vehicle id="2393#0" depart="101.60" type="car">
    <route edges="e_g4_n0 e_n0_n1 e_n1_n4 e_n4_n3 e_n3_n0 e_n0_g3" />
  </vehicle>
  <vehicle id="536#0" depart="102.04" type="car">
    <route edges="e_g0_n2 e_n2_n1 e_n1_g2" />
  </vehicle>
  <vehicle id="1176#0" depart="102.08" type="car">
    <route edges="e_g0_n2 e_n2_n1 e_n1_n0 e_n0_g3" />
  </vehicle>
  <vehicle id="2193#0" depart="102.60" type="car">
    <route edges="e_g5_n3 e_n3_n4 e_n4_n5 e_n5_g11" />
  </vehicle>
  <vehicle id="2409#0" depart="103.40" type="car">
    <route edges="e_g4_n0 e_n0_g3" />
  </vehicle>
  <vehicle id="2213#0" depart="103.60" type="car">
    <route edges="e_g5_n3 e_n3_n6 e_n6_g6" />
  </vehicle>
  <vehicle id="2413#0" depart="103.60" type="car">
    <route edges="e_g8_n7 e_n7_n4 e_n4_n3 e_n3_n0 e_n0_n1 e_n1_g2" />
  </vehicle>
  <vehicle id="245#0" depart="104.04" type="car">
    <route edges="e_g0_n2 e_n2_n1 e_n1_n4 e_n4_n3 e_n3_n0 e_n0_n1 e_n1_n4 e_n4_n3 e_n3_n0 e_n0_g3" />
  </vehicle>
  <vehicle id="2115#0" depart="104.60" type="car">
    <route edges="e_g5_n3 e_n3_n4 e_n4_n1 e_n1_n2 e_n2_n5 e_n5_g11" />
  </vehicle>
  <vehicle id="2130#0" depart="104.60" type="car">
    <route edges="e_g5_n3 e_n3_n4 e_n4_n1 e_n1_n2 e_n2_n5 e_n5_g11" />
  </vehicle>
  <vehicle id="2212#0" depart="104.60" type="car">
    <route edges="e_g5_n3 e_n3_n6 e_n6_g7" />
  </vehicle>
  <vehicle id="2354#0" depart="104.60" type="car">
    <route edges="e_g9_n8 e_n8_n7 e_n7_g8" />
  </vehicle>
  <vehicle id="538#0" depart="105.04" type="car">
    <route edges="e_g0_n2 e_n2_n1 e_n1_n4 e_n4_n3 e_n3_n0 e_n0_g3" />
  </vehicle>
  <vehicle id="2434#0" depart="105.40" type="car">
    <route edges="e_g4_n0 e_n0_n1 e_n1_n4 e_n4_n3 e_n3_n0 e_n0_g3" />
  </vehicle>
  <vehicle id="2136#0" depart="105.60" type="car">
    <route edges="e_g5_n3 e_n3_n4 e_n4_n5 e_n5_g11" />
  </vehicle>
  <vehicle id="534#0" depart="106.04" type="car">
    <route edges="e_g0_n2 e_n2_n1 e_n1_n4 e_n4_n3 e_n3_n0 e_n0_g3" />
  </vehicle>
  <vehicle id="2133#0" depart="106.60" type="car">
    <route edges="e_g5_n3 e_n3_n4 e_n4_n1 e_n1_n2 e_n2_n5 e_n5_g11" />
  </vehicle>
  <vehicle id="2255#0" depart="106.60" type="car">
    <route edges="e_g5_n3 e_n3_n4 e_n4_n1 e_n1_n2 e_n2_n5 e_n5_g11" />
  </vehicle>
  <vehicle id="1942#0" depart="107.60" type="car">
    <route edges="e_g8_n7 e_n7_n4 e_n4_n1 e_n1_n2 e_n2_n5 e_n5_g11" />
  </vehicle>
  <vehicle id="2141#0" depart="107.60" type="car">
    <route edges="e_g5_n3 e_n3_n4 e_n4_n1 e_n1_n2 e_n2_n5 e_n5_g11" />
  </vehicle>
  <vehicle id="2463#0" depart="108.20" type="car">
    <route edges="e_g4_n0 e_n0_n1 e_n1_n4 e_n4_n3 e_n3_n0 e_n0_g3" />
  </vehicle>
  <vehicle id="2134#0" depart="108.60" type="car">
    <route edges="e_g5_n3 e_n3_n4 e_n4_n1 e_n1_n2 e_n2_n5 e_n5_g11" />
  </vehicle>
  <vehicle id="2471#0" depart="109.00" type="car">
    <route edges="e_g9_n8 e_n8_g10" />
  </vehicle>
  <vehicle id="2472#0" depart="109.00" type="car">
    <route edges="e_g4_n0 e_n0_g3" />
  </vehicle>
  <vehicle id="2132#0" depart="109.60" type="car">
    <route edges="e_g5_n3 e_n3_n4 e_n4_n1 e_n1_n2 e_n2_n5 e_n5_g11" />
  </vehicle>
  <vehicle id="532#0" depart="110.04" type="car">
    <route edges="e_g0_n2 e_n2_n1 e_n1_n0 e_n0_g3" />
  </vehicle>
  <vehicle id="533#0" depart="110.04" type="car">
    <route edges="e_g0_n2 e_n2_n1 e_n1_n4 e_n4_n3 e_n3_n0 e_n0_g3" />
  </vehicle>
  <vehicle id="2492#0" depart="111.20" type="car">
    <route edges="e_g4_n0 e_n0_g3" />
  </vehicle>
  <vehicle id="2214#0" depart="111.60" type="car">
    <route edges="e_g5_n3 e_n3_n6 e_n6_g6" />
  </vehicle>
  <vehicle id="2500#0" depart="111.60" type="car">
    <route edges="e_g9_n8 e_n8_g10" />
  </vehicle>
  <vehicle id="531#0" depart="112.04" type="car">
    <route edges="e_g0_n2 e_n2_n1 e_n1_n4 e_n4_n3 e_n3_n0 e_n0_g3" />
  </vehicle>
  <vehicle id="2171#0" depart="112.60" type="car">
    <route edges="e_g5_n3 e_n3_n4 e_n4_n1 e_n1_n2 e_n2_n5 e_n5_g11" />
  </vehicle>
  <vehicle id="2517#0" depart="113.20" type="car">
    <route edges="e_g4_n0 e_n0_g3" />
  </vehicle>
  <vehicle id="1765#0" depart="113.24" type="car">
    <route edges="e_g0_n2 e_n2_n1 e_n1_n4 e_n4_n3 e_n3_n0 e_n0_n1 e_n1_n4 e_n4_n3 e_n3_n0 e_n0_g3" />
  </vehicle>
  <vehicle id="2355#0" depart="114.60" type="car">
    <route edges="e_g5_n3 e_n3_n4 e_n4_n5 e_n5_g11" />
  </vehicle>
  <vehicle id="776#0" depart="114.64" type="car">
    <route edges="e_g0_n2 e_n2_g1" />
  </vehicle>
  <vehicle id="2542#0" depart="114.80" type="car">
    <route edges="e_g4_n0 e_n0_n1 e_n1_n4 e_n4_n3 e_n3_n0 e_n0_g3" />
  </vehicle>
  <vehicle id="2547#0" depart="115.20" type="car">
    <route edges="e_g9_n8 e_n8_n7 e_n7_g8" />
  </vehicle>
  <vehicle id="2286#0" depart="115.60" type="car">
    <route edges="e_g5_n3 e_n3_n4 e_n4_n5 e_n5_g11" />
  </vehicle>
  <vehicle id="2383#0" depart="115.80" type="car">
    <route edges="e_g5_n3 e_n3_n4 e_n4_n1 e_n1_n2 e_n2_n5 e_n5_g11" />
  </vehicle>
  <vehicle id="2565#0" depart="116.40" type="car">
    <route edges="e_g4_n0 e_n0_n1 e_n1_n4 e_n4_n5 e_n5_g11" />
  </vehicle>
  <vehicle id="1733#0" depart="116.64" type="car">
    <route edges="e_g0_n2 e_n2_g1" />
  </vehicle>
  <vehicle id="2384#0" depart="116.80" type="car">
    <route edges="e_g5_n3 e_n3_n4 e_n4_n5 e_n5_g11" />
  </vehicle>
  <vehicle id="1708#0" depart="116.84" type="car">
    <route edges="e_g0_n2 e_n2_n1 e_n1_n4 e_n4_n3 e_n3_n6 e_n6_g6" />
  </vehicle>
  <vehicle id="2397#0" depart="117.20" type="car">
    <route edges="e_g5_n3 e_n3_n4 e_n4_n1 e_n1_g2" />
  </vehicle>
  <vehicle id="778#0" depart="117.64" type="car">
    <route edges="e_g0_n2 e_n2_n1 e_n1_n4 e_n4_n3 e_n3_n0 e_n0_g3" />
  </vehicle>
  <vehicle id="272#0" depart="118.04" type="car">
    <route edges="e_g0_n2 e_n2_n1 e_n1_n4 e_n4_n3 e_n3_n0 e_n0_g3" />
  </vehicle>
  <vehicle id="1756#0" depart="118.24" type="car">
    <route edges="e_g0_n2 e_n2_g1" />
  </vehicle>
  <vehicle id="2422#0" depart="118.40" type="car">
    <route edges="e_g5_n3 e_n3_n4 e_n4_n5 e_n5_g11" />
  </vehicle>
  <vehicle id="596#0" depart="118.44" type="car">
    <route edges="e_g0_n2 e_n2_g1" />
  </vehicle>
  <vehicle id="2410#0" depart="119.40" type="car">
    <route edges="e_g5_n3 e_n3_n4 e_n4_n1 e_n1_n2 e_n2_n5 e_n5_g11" />
  </vehicle>
  <vehicle id="2595#0" depart="119.60" type="car">
    <route edges="e_g4_n0 e_n0_g3" />
  </vehicle>
  <vehicle id="804#0" depart="119.64" type="car">
    <route edges="e_g0_n2 e_n2_n1 e_n1_n4 e_n4_n3 e_n3_n0 e_n0_n1 e_n1_n4 e_n4_n3 e_n3_n0 e_n0_g3" />
  </vehicle>
  <vehicle id="2432#0" depart="120.20" type="car">
    <route edges="e_g5_n3 e_n3_n4 e_n4_n1 e_n1_n2 e_n2_n5 e_n5_g11" />
  </vehicle>
  <vehicle id="796#0" depart="120.84" type="car">
    <route edges="e_g0_n2 e_n2_n1 e_n1_n4 e_n4_n3 e_n3_n6 e_n6_g7" />
  </vehicle>
  <vehicle id="1670#0" depart="121.24" type="car">
    <route edges="e_g0_n2 e_n2_g1" />
  </vehicle>
  <vehicle id="2617#0" depart="121.40" type="car">
    <route edges="e_g10_n8 e_n8_n7 e_n7_g8" />
  </vehicle>
  <vehicle id="2622#0" depart="121.60" type="car">
    <route edges="e_g4_n0 e_n0_n3 e_n3_n6 e_n6_g6" />
  </vehicle>
  <vehicle id="2513#0" depart="121.80" type="car">
    <route edges="e_g9_n8 e_n8_g10" />
  </vehicle>
  <vehicle id="2626#0" depart="122.00" type="car">
    <route edges="e_g9_n8 e_n8_g10" />
  </vehicle>
  <vehicle id="1683#0" depart="123.04" type="car">
    <route edges="e_g0_n2 e_n2_n1 e_n1_n4 e_n4_n3 e_n3_n0 e_n0_g3" />
  </vehicle>
  <vehicle id="2657#0" depart="124.60" type="car">
    <route edges="e_g9_n8 e_n8_g10" />
  </vehicle>
  <vehicle id="2571#0" depart="125.00" type="car">
    <route edges="e_g9_n8 e_n8_g10" />
  </vehicle>
  <vehicle id="2683#0" depart="126.60" type="car">
    <route edges="e_g9_n8 e_n8_g10" />
  </vehicle>
  <vehicle id="2563#0" depart="127.20" type="car">
    <route edges="e_g9_n8 e_n8_g10" />
  </vehicle>
  <vehicle id="1721#0" depart="127.84" type="car">
    <route edges="e_g0_n2 e_n2_g1" />
  </vehicle>
  <vehicle id="1704#0" depart="128.44" type="car">
    <route edges="e_g0_n2 e_n2_n1 e_n1_n4 e_n4_n3 e_n3_n6 e_n6_g6" />
  </vehicle>
  <vehicle id="1732#0" depart="129.44" type="car">
    <route edges="e_g0_n2 e_n2_n1 e_n1_n0 e_n0_g3" />
  </vehicle>
  <vehicle id="1803#0" depart="132.04" type="car">
    <route edges="e_g0_n2 e_n2_g1" />
  </vehicle>
  <vehicle id="2762#0" depart="133.40" type="car">
    <route edges="e_g9_n8 e_n8_g10" />
  </vehicle>
  <vehicle id="1693#0" depart="133.44" type="car">
    <route edges="e_g0_n2 e_n2_g1" />
  </vehicle>
  <vehicle id="1673#0" depart="135.64" type="car">
    <route edges="e_g0_n2 e_n2_g1" />
  </vehicle>
  <vehicle id="1724#0" depart="137.04" type="car">
    <route edges="e_g0_n2 e_n2_n1 e_n1_n0 e_n0_g3" />
  </vehicle>
  <vehicle id="2727#0" depart="137.40" type="car">
    <route edges="e_g9_n8 e_n8_n7 e_n7_g8" />
  </vehicle>
  <vehicle id="2811#0" depart="137.40" type="car">
    <route edges="e_g4_n0 e_n0_n1 e_n1_n4 e_n4_n3 e_n3_n6 e_n6_g6" />
  </vehicle>
  <vehicle id="2813#0" depart="137.40" type="car">
    <route edges="e_g9_n8 e_n8_g10" />
  </vehicle>
  <vehicle id="2484#0" depart="138.40" type="car">
    <route edges="e_g10_n8 e_n8_n7 e_n7_g8" />
  </vehicle>
  <vehicle id="2203#1" depart="138.60" type="car">
    <route edges="e_g5_n3 e_n3_n4 e_n4_n1 e_n1_n2 e_n2_n5 e_n5_g11" />
  </vehicle>
  <vehicle id="1690#0" depart="138.64" type="car">
    <route edges="e_g0_n2 e_n2_g1" />
  </vehicle>
  <vehicle id="2843#0" depart="140.20" type="car">
    <route edges="e_g11_n5 e_n5_n8 e_n8_n7 e_n7_n4 e_n4_n5 e_n5_n8 e_n8_g10" />
  </vehicle>
  <vehicle id="2858#0" depart="141.00" type="car">
    <route edges="e_g9_n8 e_n8_g10" />
  </vehicle>
  <vehicle id="1957#0" depart="141.24" type="car">
    <route edges="e_g0_n2 e_n2_g1" />
  </vehicle>
  <vehicle id="1718#0" depart="142.04" type="car">
    <route edges="e_g0_n2 e_n2_g1" />
  </vehicle>
  <vehicle id="1958#0" depart="144.24" type="car">
    <route edges="e_g0_n2 e_n2_g1" />
  </vehicle>
  <vehicle id="2889#0" depart="144.40" type="car">
    <route edges="e_g9_n8 e_n8_g10" />
  </vehicle>
  <vehicle id="1748#0" depart="144.64" type="car">
    <route edges="e_g0_n2 e_n2_n1 e_n1_n4 e_n4_n3 e_n3_n0 e_n0_g3" />
  </vehicle>
  <vehicle id="2857#0" depart="147.00" type="car">
    <route edges="e_g9_n8 e_n8_g10" />
  </vehicle>
  <vehicle id="1814#0" depart="147.24" type="car">
    <route edges="e_g0_n2 e_n2_g1" />
  </vehicle>
  <vehicle id="2809#0" depart="147.32" type="car">
    <route edges="e_g7_n6 e_n6_g6" />
  </vehicle>
  <vehicle id="2351#0" depart="147.40" type="car">
    <route edges="e_g5_n3 e_n3_n4 e_n4_n1 e_n1_n2 e_n2_n5 e_n5_g11" />
  </vehicle>
  <vehicle id="1800#0" depart="147.44" type="car">
    <route edges="e_g0_n2 e_n2_n1 e_n1_n4 e_n4_n3 e_n3_n0 e_n0_n1 e_n1_n4 e_n4_n3 e_n3_n6 e_n6_g7" />
  </vehicle>
  <vehicle id="2950#0" depart="148.40" type="car">
    <route edges="e_g4_n0 e_n0_n1 e_n1_n4 e_n4_n3 e_n3_n6 e_n6_g6" />
  </vehicle>
  <vehicle id="2952#0" depart="148.40" type="car">
    <route edges="e_g4_n0 e_n0_g3" />
  </vehicle>
  <vehicle id="2956#0" depart="148.80" type="car">
    <route edges="e_g11_n5 e_n5_n8 e_n8_g10" />
  </vehicle>
  <vehicle id="2460#0" depart="149.00" type="car">
    <route edges="e_g5_n3 e_n3_n4 e_n4_n1 e_n1_n2 e_n2_n5 e_n5_g11" />
  </vehicle>
  <vehicle id="1834#0" depart="149.44" type="car">
    <route edges="e_g0_n2 e_n2_n1 e_n1_g2" />
  </vehicle>
  <vehicle id="1824#0" depart="149.64" type="car">
    <route edges="e_g0_n2 e_n2_n1 e_n1_n4 e_n4_n3 e_n3_n0 e_n0_n1 e_n1_n4 e_n4_n3 e_n3_n0 e_n0_g3" />
  </vehicle>
  <vehicle id="2979#0" depart="150.20" type="car">
    <route edges="e_g4_n0 e_n0_n3 e_n3_n6 e_n6_g6" />
  </vehicle>
  <vehicle id="2198#0" depart="150.60" type="car">
    <route edges="e_g5_n3 e_n3_n4 e_n4_n1 e_n1_n2 e_n2_n5 e_n5_g11" />
  </vehicle>
  <vehicle id="2988#0" depart="151.20" type="car">
    <route edges="e_g11_n5 e_n5_n8 e_n8_n7 e_n7_n4 e_n4_n5 e_n5_n8 e_n8_n7 e_n7_g8" />
  </vehicle>
  <vehicle id="1869#0" depart="151.24" type="car">
    <route edges="e_g0_n2 e_n2_n1 e_n1_n4 e_n4_n3 e_n3_n0 e_n0_g3" />
  </vehicle>
  <vehicle id="1877#0" depart="151.84" type="car">
    <route edges="e_g0_n2 e_n2_n1 e_n1_n4 e_n4_n3 e_n3_n6 e_n6_g7" />
  </vehicle>
  <vehicle id="2461#0" depart="152.00" type="car">
    <route edges="e_g5_n3 e_n3_n4 e_n4_n5 e_n5_g11" />
  </vehicle>
  <vehicle id="2224#0" depart="152.60" type="car">
    <route edges="e_g5_n3 e_n3_n6 e_n6_n7 e_n7_n4 e_n4_n5 e_n5_g11" />
  </vehicle>
  <vehicle id="3001#0" depart="152.60" type="car">
    <route edges="e_g4_n0 e_n0_n1 e_n1_n4 e_n4_n5 e_n5_n8 e_n8_g10" />
  </vehicle>
  <vehicle id="3012#0" depart="153.40" type="car">